33

C         -0.78862        1.24832       -0.34782
N         -1.42783        2.51090       -0.33763
N         -2.63939        2.45446       -0.04563
C         -3.26516        3.72893       -0.03258
C         -2.91288        4.79733       -0.87239
O         -1.89476        4.72122       -1.79342
C         -3.60568        6.00658       -0.82096
O         -3.23873        7.03512       -1.64200
C         -4.67536        6.18603        0.04390
C         -5.07085        5.13858        0.88457
C         -6.24246        5.31471        1.80661
C         -4.35702        3.92767        0.83647
O         -4.75996        2.91639        1.67602
C         -1.44407        0.04067       -0.63732
C         -0.72713       -1.15753       -0.65013
O         -1.33543       -2.34795       -0.91877
C          0.64043       -1.18386       -0.39319
C          1.30270        0.01010       -0.12741
O          2.64670        0.01552        0.11755
C          0.59664        1.21447       -0.10804
O          1.28191        2.37745        0.14714
H         -1.53442        3.81562       -1.72400
H         -2.48182        6.68824       -2.15548
H         -5.19897        7.13856        0.05174
H         -7.02569        4.58770        1.56730
H         -5.93149        5.18598        2.84804
H         -6.68026        6.31463        1.71191
H         -4.12996        2.18035        1.56204
H         -2.50636        0.04103       -0.85909
H         -2.28153       -2.19929       -1.08691
H          1.16682       -2.13185       -0.41071
H          2.98380       -0.89332        0.07989
H          0.63346        3.10000        0.20251
